data/rfi_simulation/der050/ckt7_Mon_rfi_19_der050.csv
fault_bus,fault_type,fault_R_ohm,Va_mag_pu,Va_ang_deg,Vb_mag_pu,Vb_ang_deg,Vc_mag_pu,Vc_ang_deg,Ia_mag_A,Ia_ang_deg,Ib_mag_A,Ib_ang_deg,Ic_mag_A,Ic_ang_deg
318412,SLG,0,0.61845,-77.3046,1.608574,-127.1273,1.053404,103.1339,743.5887,84.5891,1258.3453,35.4976,869.4384,-94.1942
318412,SLG,10,1.374714,-18.3583,1.371381,-137.9751,1.365394,101.5264,1066.6867,143.9362,1063.7521,24.3301,1059.2129,-96.1892
318412,SLG,20,1.374578,-18.3372,1.371486,-137.9795,1.365432,101.5325,1066.5754,143.9574,1063.8354,24.3254,1059.2462,-96.1829
318412,SLG,30,1.374532,-18.3301,1.371521,-137.981,1.365445,101.5345,1066.5382,143.9644,1063.8632,24.3238,1059.2573,-96.1809
318412,SLG,40,1.37451,-18.3266,1.371539,-137.9817,1.365451,101.5355,1066.5196,143.968,1063.8771,24.323,1059.2628,-96.1798
318412,LL,0,0.531023,-109.1128,0.392296,-149.7658,1.203559,111.6973,634.3854,52.5246,474.1814,12.6917,929.5473,-85.3055
318412,LL,10,1.374636,-18.3704,1.371654,-138.0175,1.36518,101.5354,1066.619,143.9236,1063.9748,24.2875,1059.0432,-96.1797
318412,LL,20,1.374539,-18.3432,1.371623,-138.0007,1.365325,101.5369,1066.5415,143.9511,1063.9469,24.3041,1059.1613,-96.1782
318412,LL,30,1.374506,-18.3342,1.371612,-137.9951,1.365373,101.5375,1066.5156,143.9602,1063.9376,24.3096,1059.2007,-96.1777
318412,LL,40,1.37449,-18.3297,1.371607,-137.9923,1.365398,101.5377,1066.5027,143.9648,1063.9329,24.3124,1059.2204,-96.1774
318412,3LG,0,0.201563,-91.397,0.20094,148.7572,0.200738,28.2713,236.4574,71.0579,235.6454,-48.7901,235.4726,-169.2915
318412,3LG,10,1.374426,-18.3617,1.371576,-138.0296,1.365454,101.4929,1066.4518,143.9329,1063.9068,24.2751,1059.2674,-96.2223
318412,3LG,20,1.374434,-18.3389,1.371584,-138.0067,1.365462,101.5157,1066.4579,143.9557,1063.9129,24.2979,1059.2735,-96.1995
318412,3LG,30,1.374436,-18.3313,1.371586,-137.9991,1.365465,101.5233,1066.4599,143.9633,1063.9149,24.3055,1059.2755,-96.1919
318412,3LG,40,1.374438,-18.3275,1.371588,-137.9953,1.365466,101.5271,1066.4609,143.9671,1063.9159,24.3093,1059.2765,-96.1881
243937,SLG,0,0.934107,-96.9644,2.225107,-152.1265,1.723058,133.7375,938.3074,64.2249,1755.8678,10.5654,1333.6281,-62.6006
243937,SLG,10,1.368339,-18.7002,1.378292,-138.0368,1.363198,101.8074,1061.7183,143.5818,1069.3263,24.2734,1057.3197,-95.9008
243937,SLG,20,1.371379,-18.5085,1.374953,-138.0103,1.364322,101.6732,1064.0824,143.7798,1066.6316,24.2971,1058.2898,-96.0385
243937,SLG,30,1.372398,-18.4444,1.373835,-138.0015,1.364702,101.6284,1064.8742,143.846,1065.7294,24.305,1058.6175,-96.0845
243937,SLG,40,1.372908,-18.4124,1.373275,-137.9971,1.364893,101.6059,1065.2709,143.8791,1065.2775,24.3089,1058.7822,-96.1075
243937,LL,0,0.49243,-129.7077,0.493086,-139.8012,1.805881,108.4084,596.084,31.5626,598.631,21.8002,1403.2941,-88.6844
243937,LL,10,1.36607,-18.4336,1.372121,-138.4191,1.369851,101.7548,1059.7609,143.8553,1064.5248,23.8787,1062.6906,-95.9478
243937,LL,20,1.370232,-18.3748,1.371862,-138.2025,1.367667,101.6475,1063.0939,143.9169,1064.2273,24.0986,1060.9896,-96.0613
243937,LL,30,1.37163,-18.3552,1.371773,-138.1299,1.366936,101.6114,1064.2129,143.9375,1064.1255,24.1724,1060.4207,-96.0995
243937,LL,40,1.372331,-18.3454,1.371728,-138.0935,1.36657,101.5933,1064.7741,143.9477,1064.0743,24.2094,1060.1358,-96.1187
243937,3LG,0,0.049859,-74.8989,0.04971,165.2427,0.049662,44.7781,58.4805,87.553,58.2859,-32.307,58.2447,-152.7863
243937,3LG,10,1.372705,-18.4843,1.369861,-138.1526,1.363754,101.3702,1065.1164,143.8103,1062.5768,24.152,1057.9484,-96.345
243937,3LG,20,1.373574,-18.4002,1.370727,-138.0683,1.364613,101.4543,1065.7908,143.8944,1063.2485,24.2363,1058.6146,-96.2609
243937,3LG,30,1.373863,-18.3722,1.371015,-138.0402,1.364899,101.4824,1066.0153,143.9224,1063.4721,24.2644,1058.8364,-96.2328
243937,3LG,40,1.374008,-18.3582,1.37116,-138.0261,1.365042,101.4964,1066.1275,143.9364,1063.5839,24.2785,1058.9472,-96.2188
157347,SLG,0,0.685042,-39.7947,1.756734,-148.6505,1.550898,117.8058,802.3882,121.2934,1376.4814,13.7132,1200.8398,-79.2541
157347,SLG,10,1.370281,-19.0352,1.379864,-137.851,1.358557,101.77,1063.3723,143.2429,1070.5413,24.4679,1053.5811,-95.943
157347,SLG,20,1.372388,-18.6779,1.375739,-137.9156,1.361969,101.6535,1064.9391,143.6085,1067.2383,24.3963,1056.3949,-96.0606
157347,SLG,30,1.373078,-18.5578,1.374359,-137.9379,1.363126,101.615,1065.4521,143.7313,1066.1335,24.3716,1057.3485,-96.0995
157347,SLG,40,1.373421,-18.4975,1.373668,-137.9493,1.363709,101.5958,1065.7069,143.7929,1065.5805,24.359,1057.8283,-96.1189
157347,LL,0,0.587722,-25.2134,0.770615,-147.6254,1.682788,103.9192,677.6315,136.9821,911.3417,14.3621,1310.1138,-93.4924
157347,LL,10,1.363396,-18.8064,1.375489,-138.571,1.366814,101.9036,1057.6944,143.4737,1067.2747,23.7314,1060.1917,-95.7948
157347,LL,20,1.36889,-18.564,1.373618,-138.2784,1.366097,101.7231,1062.0568,143.7233,1065.6588,24.0251,1059.6978,-95.9837
157347,LL,30,1.370734,-18.4819,1.37296,-138.1804,1.365877,101.662,1063.5209,143.8078,1065.0928,24.1235,1059.5497,-96.0475
157347,LL,40,1.371659,-18.4407,1.372624,-138.1314,1.365772,101.6313,1064.2548,143.8502,1064.8046,24.1727,1059.4789,-96.0796
157347,3LG,0,0.689418,-22.1848,0.687118,-142.047,0.686375,97.4578,807.0193,140.2913,804.0256,20.4271,803.3882,-100.0842
157347,3LG,10,1.371514,-18.6735,1.368689,-138.3418,1.362576,101.1816,1064.1919,143.6211,1061.6678,23.9628,1057.0343,-96.5336
157347,3LG,20,1.372988,-18.4953,1.370151,-138.1634,1.364034,101.3595,1065.3362,143.7992,1062.8018,24.1412,1058.1652,-96.3557
157347,3LG,30,1.373475,-18.4357,1.370634,-138.1037,1.364515,101.419,1065.714,143.8589,1063.1761,24.2009,1058.5385,-96.2961
157347,3LG,40,1.373718,-18.4059,1.370874,-138.0738,1.364755,101.4489,1065.9022,143.8888,1063.3625,24.2308,1058.7244,-96.2663
298162,SLG,0,0.674639,-89.8098,2.012953,-143.1855,1.360804,127.7526,823.4646,71.5117,1583.7828,19.4616,1047.0655,-68.6926
298162,SLG,10,1.373859,-20.1074,1.385619,-137.3465,1.34519,101.7174,1066.5638,142.157,1075.0547,24.9982,1042.7716,-96.0072
298162,SLG,20,1.374272,-19.2173,1.378525,-137.6576,1.355236,101.6221,1066.6094,143.062,1069.4181,24.6674,1050.951,-96.0982
298162,SLG,30,1.374356,-18.9182,1.376195,-137.7647,1.358626,101.5929,1066.5824,143.3662,1067.5689,24.5536,1053.7109,-96.1257
298162,SLG,40,1.374387,-18.7681,1.375037,-137.8189,1.36033,101.5788,1066.5609,143.5188,1066.6502,24.496,1055.097,-96.139
298162,LL,0,0.431883,-139.1986,0.431334,-141.2052,1.675872,110.8518,526.7167,22.1659,526.3746,20.238,1303.5782,-86.1916
298162,LL,10,1.353638,-19.9468,1.384201,-139.1475,1.35929,102.3683,1050.1001,142.3067,1074.4695,23.1662,1053.9618,-95.3145
298162,LL,20,1.364036,-19.1392,1.378132,-138.5639,1.362132,101.9542,1058.2794,143.1348,1069.3805,23.7455,1056.4179,-95.745
298162,LL,30,1.367505,-18.8666,1.376005,-138.3702,1.363189,101.8158,1061.0077,143.4143,1067.6015,23.9377,1057.3259,-95.8889
298162,LL,40,1.369239,-18.7296,1.374921,-138.2734,1.363738,101.7465,1062.3719,143.5547,1066.6964,24.0336,1057.797,-95.9608
298162,3LG,0,0.008855,-84.0675,0.008832,156.0643,0.008818,35.6663,10.387,78.3856,10.356,-41.4824,10.3416,-161.895
298162,3LG,10,1.367032,-19.3057,1.364308,-138.9729,1.358129,100.5531,1060.7141,142.9888,1058.2713,23.3317,1053.5831,-97.1621
298162,3LG,20,1.370778,-18.8122,1.367992,-138.4797,1.361839,101.0445,1063.6211,143.4823,1061.1275,23.8249,1056.4622,-96.6707
298162,3LG,30,1.372008,-18.6471,1.369201,-138.3148,1.363059,101.2089,1064.5759,143.6474,1062.0652,23.9899,1057.4082,-96.5063
298162,3LG,40,1.37262,-18.5645,1.369802,-138.2322,1.363665,101.2912,1065.0506,143.7301,1062.5314,24.0725,1057.8786,-96.424
165448,SLG,0,0.667068,-89.9636,2.020551,-142.9674,1.353157,128.0751,814.7825,71.3565,1589.8063,19.6782,1041.1633,-68.3566
165448,SLG,10,1.374632,-20.2405,1.386221,-137.2739,1.34338,101.7011,1067.2231,142.0225,1075.5221,25.0742,1041.3131,-96.0255
165448,SLG,20,1.374684,-19.2845,1.378802,-137.6202,1.354324,101.6128,1066.9593,142.9942,1069.6319,24.7065,1050.2167,-96.1085
165448,SLG,30,1.374637,-18.9631,1.376374,-137.7395,1.358017,101.5864,1066.8203,143.3209,1067.7067,24.5799,1053.2203,-96.1329
165448,SLG,40,1.3746,-18.8018,1.375169,-137.7999,1.359872,101.5739,1066.7411,143.4848,1066.7518,24.5159,1054.7287,-96.1444
165448,LL,0,0.429203,-139.8471,0.428759,-141.7175,1.677807,111.0792,523.8165,21.5155,523.5748,19.72,1305.2406,-85.9601
165448,LL,10,1.352613,-20.0988,1.385474,-139.2108,1.358105,102.4277,1049.3092,142.1512,1075.5116,23.1047,1052.9874,-95.2533
165448,LL,20,1.363538,-19.2163,1.378798,-138.5947,1.361497,101.9833,1057.8959,143.0559,1069.9239,23.7157,1055.8965,-95.7151
165448,LL,30,1.367176,-18.9182,1.376454,-138.3904,1.362756,101.835,1060.7549,143.3614,1067.9686,23.9181,1056.9706,-95.8691
165448,LL,40,1.368994,-18.7684,1.375261,-138.2885,1.36341,101.7608,1062.1834,143.515,1066.9736,24.019,1057.5277,-95.9461
165448,3LG,0,0.008203,-84.457,0.008181,155.674,0.008168,35.2829,9.6217,77.9961,9.5934,-41.8725,9.5794,-162.2781
165448,3LG,10,1.366531,-19.3849,1.363825,-139.0518,1.357629,100.4746,1060.3258,142.9096,1057.8966,23.2529,1053.1952,-97.2405
165448,3LG,20,1.370535,-18.852,1.367757,-138.5194,1.361596,101.005,1063.4327,143.4425,1060.9457,23.7853,1056.2736,-96.7101
165448,3LG,30,1.371848,-18.6737,1.369046,-138.3412,1.362898,101.1825,1064.4515,143.6208,1061.9453,23.9634,1057.2837,-96.5326
165448,3LG,40,1.3725,-18.5844,1.369687,-138.252,1.363545,101.2714,1064.9578,143.7101,1062.4419,24.0526,1057.7857,-96.4438
165449,SLG,0,0.601403,-94.316,2.092182,-142.8384,1.351182,131.0849,740.383,66.972,1647.3781,19.7865,1041.0131,-65.2279
165449,SLG,10,1.384304,-21.5829,1.392783,-136.5224,1.324469,101.5341,1075.3537,140.667,1080.6104,25.8608,1026.0828,-96.2134
165449,SLG,20,1.379902,-19.9606,1.381674,-137.2309,1.344835,101.5129,1071.3226,142.3114,1071.8376,25.1139,1042.5798,-96.2194
165449,SLG,30,1.3782,-19.4148,1.378193,-137.4771,1.351687,101.5162,1069.7961,142.8646,1069.0985,24.8545,1048.1272,-96.2105
165449,SLG,40,1.377305,-19.141,1.376497,-137.602,1.355124,101.5199,1068.998,143.1422,1067.7655,24.7229,1050.9085,-96.2041
165449,LL,0,0.399923,-147.5518,0.400076,-148.7259,1.723959,112.2362,492.0099,13.7706,492.3436,12.6526,1343.0013,-84.7741
165449,LL,10,1.343432,-21.6446,1.400512,-139.8455,1.346054,103.0667,1042.2619,140.5683,1087.7375,22.4894,1043.0647,-94.5952
165449,LL,20,1.359268,-20.0021,1.38662,-138.8953,1.354876,102.2888,1054.6253,142.2517,1076.2701,23.4255,1050.4544,-95.4013
165449,LL,30,1.364406,-19.4449,1.381732,-138.5869,1.358211,102.0352,1058.6347,142.8225,1072.2469,23.7287,1053.2374,-95.6637
165449,LL,40,1.366946,-19.1644,1.379241,-138.4344,1.359952,101.9096,1060.6164,143.1098,1070.1995,23.8786,1054.6886,-95.7935
165449,3LG,0,0.004762,-89.044,0.004752,151.068,0.004742,30.7611,5.5855,73.4092,5.5726,-46.4767,5.5613,-166.7971
165449,3LG,10,1.362987,-20.1725,1.360522,-139.8337,1.354058,99.6977,1057.5766,142.1218,1055.3379,22.4711,1050.4203,-98.0173
165449,3LG,20,1.368874,-19.2482,1.366214,-138.9124,1.359912,100.6143,1062.1443,143.0462,1059.7504,23.3923,1054.9649,-97.1008
165449,3LG,30,1.370766,-18.9384,1.368042,-138.6037,1.361798,100.9215,1063.6121,143.3561,1061.1673,23.701,1056.429,-96.7936
165449,3LG,40,1.371698,-18.7831,1.368943,-138.449,1.362729,101.0754,1064.3356,143.5114,1061.8655,23.8556,1057.1514,-96.6397
287274,SLG,0,0.597001,-84.4266,2.077419,-141.3563,1.296953,130.535,730.914,76.6674,1634.3509,21.2637,997.974,-65.8455
287274,SLG,10,1.384083,-22.5176,1.3986,-136.0163,1.310976,101.4633,1075.5669,139.7205,1085.2133,26.3896,1015.206,-96.2945
287274,SLG,20,1.380239,-20.4393,1.384173,-136.9594,1.337961,101.4586,1071.7827,141.8266,1073.8002,25.3974,1037.0433,-96.2795
287274,SLG,30,1.378529,-19.7364,1.379759,-137.2921,1.347082,101.4758,1070.1839,142.539,1070.3239,25.0476,1044.419,-96.255
287274,SLG,40,1.377591,-19.3831,1.377632,-137.4619,1.351662,101.488,1069.3197,142.8971,1068.6523,24.8692,1048.1217,-96.2391
287274,LL,0,0.334489,-122.1687,0.462381,-159.172,1.716165,112.4795,408.1107,37.8176,565.1112,2.7565,1336.5371,-84.5634
287274,LL,10,1.329758,-22.6904,1.404908,-140.3153,1.338808,103.5637,1031.6304,139.4968,1091.5616,22.0285,1037.1196,-94.0805
287274,LL,20,1.352724,-20.5463,1.389189,-139.1163,1.350537,102.5247,1049.5435,141.6948,1078.4696,23.2099,1046.9031,-95.1578
287274,LL,30,1.360118,-19.8122,1.383519,-138.7307,1.355161,102.1889,1055.3065,142.4468,1073.7709,23.5887,1050.7432,-95.5051
287274,LL,40,1.36376,-19.4416,1.380609,-138.5409,1.357607,102.0235,1058.1437,142.8263,1071.3631,23.7751,1052.771,-95.6761
287274,3LG,0,0.161378,-54.9208,0.161093,-174.8297,0.160751,64.919,189.2939,107.532,188.9169,-12.3744,188.5429,-132.6378
287274,3LG,10,1.354241,-20.6956,1.352036,-140.3538,1.345368,99.1858,1050.7901,141.5984,1048.7597,21.9511,1043.6755,-98.5291
287274,3LG,20,1.364578,-19.5178,1.362046,-139.18,1.355631,100.3504,1058.8111,142.7765,1056.5196,23.1248,1051.6416,-97.3646
287274,3LG,30,1.36792,-19.1199,1.365281,-138.7837,1.35896,100.7439,1061.4045,143.1745,1059.0275,23.521,1054.2255,-96.9713
287274,3LG,40,1.369571,-18.9199,1.366879,-138.5847,1.360606,100.9415,1062.6855,143.3746,1060.2661,23.72,1055.5035,-96.7736
283954,SLG,0,0.564989,-86.9552,2.0982,-141.8818,1.31694,131.3927,694.2694,74.0625,1651.3232,20.725,1014.2748,-64.9502
283954,SLG,10,1.390413,-23.3192,1.402871,-135.5703,1.299535,101.3625,1080.8668,138.9123,1088.5447,26.8565,1005.9915,-96.4085
283954,SLG,20,1.383865,-20.8426,1.385795,-136.7225,1.332257,101.389,1074.7923,141.4199,1075.0433,25.6452,1032.4554,-96.3563
283954,SLG,30,1.381049,-20.0056,1.380717,-137.1315,1.343292,101.4253,1072.2708,142.2675,1071.0517,25.2155,1041.3713,-96.3104
283954,SLG,40,1.37952,-19.5851,1.378303,-137.3404,1.348825,101.4486,1070.915,142.6934,1069.1594,24.9961,1045.8409,-96.2822
283954,LL,0,0.311128,-123.4364,0.45123,-164.0847,1.742027,112.4452,380.8007,36.1958,553.0649,-2.1195,1357.5437,-84.5925
283954,LL,10,1.324528,-23.6322,1.414687,-140.7204,1.331958,103.9813,1027.6334,138.5317,1099.4955,21.6348,1031.4701,-93.6492
283954,LL,20,1.350611,-21.03,1.394292,-139.2979,1.346441,102.7127,1047.941,141.1997,1082.5958,23.0349,1043.5384,-94.9645
283954,LL,30,1.358831,-20.1371,1.386954,-138.8467,1.352293,102.3088,1054.3338,142.1143,1076.5451,23.4773,1048.3894,-95.3821
283954,LL,40,1.362841,-19.6862,1.383195,-138.6259,1.355406,102.1113,1057.451,142.5761,1073.4506,23.6935,1050.9658,-95.5861
283954,3LG,0,0.170094,-57.2271,0.16988,-177.1565,0.169498,62.6534,199.5191,105.2252,199.2288,-14.7008,198.8025,-134.9016
283954,3LG,10,1.352621,-21.1755,1.350681,-140.8272,1.3437,98.7188,1049.5343,141.1182,1047.713,21.4779,1042.3766,-98.996
283954,3LG,20,1.3639,-19.762,1.361493,-139.4202,1.35491,100.1126,1058.2856,142.5322,1056.0925,22.8846,1051.0795,-97.6024
283954,3LG,30,1.367499,-19.2836,1.364941,-138.9447,1.358506,100.5844,1061.0783,143.0107,1058.765,23.3601,1053.8715,-97.1307
283954,3LG,40,1.369267,-19.043,1.366635,-138.7057,1.360276,100.8216,1062.4501,143.2514,1060.0777,23.5991,1055.2459,-96.8935
283956,SLG,0,0.797569,-70.122,1.991094,-138.5661,1.201707,126.4941,961.6514,91.3849,1562.6881,24.1303,920.0572,-70.1515
283956,SLG,10,1.389595,-23.2325,1.402491,-135.6181,1.300717,101.3766,1080.1896,138.9996,1088.2492,26.8065,1006.9431,-96.3929
283956,SLG,20,1.38363,-20.8203,1.38573,-136.7354,1.332555,101.3937,1074.5994,141.4424,1074.9946,25.6317,1032.6953,-96.3511
283956,SLG,30,1.38094,-19.9955,1.380693,-137.1374,1.343425,101.4276,1072.1816,142.2777,1071.0339,25.2093,1041.4784,-96.3079
283956,SLG,40,1.379457,-19.5793,1.378291,-137.3438,1.3489,101.4499,1070.864,142.6992,1069.1505,24.9926,1045.9015,-96.2807
283956,LL,0,0.523617,-80.8093,0.696721,-165.4125,1.638007,112.5644,618.9361,79.829,836.8938,-2.8523,1271.8714,-84.5034
283956,LL,10,1.32529,-23.5214,1.412971,-140.6852,1.332943,103.9286,1028.2133,138.6456,1098.1189,21.6684,1032.2808,-93.7037
283956,LL,20,1.350772,-21.0007,1.393842,-139.2907,1.346742,102.7009,1048.0623,141.2298,1082.2353,23.0416,1043.7851,-94.9766
283956,LL,30,1.358898,-20.1238,1.386751,-138.8437,1.352434,102.3038,1054.3843,142.128,1076.383,23.48,1048.5055,-95.3873
283956,LL,40,1.362877,-19.6786,1.38308,-138.6243,1.355488,102.1085,1057.4787,142.5839,1073.3591,23.695,1051.033,-95.589
283956,3LG,0,0.478778,-54.1098,0.478236,-174.0076,0.476801,65.7574,561.6494,108.341,560.887,-11.5523,559.2663,-131.8003
283956,3LG,10,1.352685,-21.1348,1.350724,-140.7871,1.343771,98.7583,1049.584,141.1589,1047.7461,21.518,1042.4321,-98.9565
283956,3LG,20,1.363913,-19.7513,1.361501,-139.4098,1.354926,100.123,1058.2958,142.5428,1056.0986,22.8951,1051.0917,-97.592
283956,3LG,30,1.367505,-19.2787,1.364945,-138.9399,1.358513,100.5891,1061.0828,143.0156,1058.7678,23.3649,1053.8771,-97.126
283956,3LG,40,1.369271,-19.0402,1.366638,-138.703,1.36028,100.8243,1062.4529,143.2542,1060.0795,23.6018,1055.2493,-96.8908
189963,SLG,0,0.330117,-97.7125,2.191184,-141.9705,1.329732,135.2775,420.6133,62.4338,1725.9943,20.5513,1026.8142,-60.8996
189963,SLG,10,1.369107,-26.337,1.426568,-134.0809,1.255933,101.3296,1065.4348,135.8502,1107.5571,28.409,970.8013,-96.4589
189963,SLG,20,1.374982,-22.3941,1.395467,-135.8829,1.309938,101.2717,1068.4664,139.8459,1082.7613,26.5205,1014.4616,-96.4861
189963,SLG,30,1.375548,-21.0482,1.386604,-136.5525,1.328351,101.3251,1068.3833,141.2097,1075.7361,25.8191,1029.3307,-96.4196
189963,SLG,40,1.375555,-20.37,1.382498,-136.8993,1.337605,101.3653,1068.1256,141.897,1072.4914,25.4559,1036.8001,-96.3725
189963,LL,0,0.204042,-165.8298,0.261572,-164.9685,1.834294,112.7697,264.3168,-5.5934,331.6185,-4.3432,1434.1721,-84.3257
189963,LL,10,1.259629,-26.9564,1.411556,-142.4001,1.314837,105.8142,977.0124,135.1185,1098.4833,19.9705,1017.4792,-91.7411
189963,LL,20,1.319383,-22.7733,1.393926,-140.0633,1.334002,103.5501,1023.6031,139.4147,1083.0127,22.2807,1033.4021,-94.0957
189963,LL,30,1.338361,-21.3148,1.386891,-139.3381,1.3432,102.8428,1038.3844,140.9095,1076.9594,22.9943,1040.9861,-94.8288
189963,LL,40,1.347629,-20.5748,1.383202,-138.9871,1.348299,102.5018,1045.6002,141.6673,1073.8014,23.3389,1045.1817,-95.1817
189963,3LG,0,0.033321,-11.8532,0.033315,-131.8649,0.033322,108.132,39.0844,150.5956,39.0761,30.5861,39.0856,-89.4195
189963,3LG,10,1.307371,-22.7973,1.306672,-142.4335,1.298884,97.1625,1014.4203,139.4951,1013.5972,19.8721,1007.5913,-100.5515
189963,3LG,20,1.341188,-20.6162,1.339385,-140.2622,1.332297,99.2919,1040.6636,141.6773,1038.954,22.043,1033.5271,-98.4228
189963,3LG,30,1.352355,-19.8627,1.350191,-139.5147,1.3434,100.0275,1049.3284,142.4312,1047.3299,22.7903,1042.1454,-97.6874
189963,3LG,40,1.357911,-19.481,1.35557,-139.1365,1.348937,100.4003,1053.6388,142.8131,1051.4991,23.1685,1046.4439,-97.3147
181977,SLG,0,0.396411,-83.6736,2.142436,-141.2048,1.296128,133.3043,493.0576,76.3454,1686.0115,21.3378,999.3271,-62.9766
181977,SLG,10,1.37298,-26.9149,1.430806,-133.7872,1.247521,101.2986,1068.7217,135.2679,1110.9067,28.7166,964.0171,-96.4984
181977,SLG,20,1.377898,-22.7058,1.396884,-135.7014,1.305467,101.2189,1070.8847,139.5319,1083.8572,26.7102,1010.8658,-96.5446
181977,SLG,30,1.377728,-21.2605,1.387351,-136.4246,1.32534,101.2815,1070.1816,140.996,1076.3043,25.9528,1026.9108,-96.4674
181977,SLG,40,1.377281,-20.5308,1.382978,-136.8009,1.335339,101.3294,1069.5458,141.7352,1072.852,25.5587,1034.98,-96.4115
181977,LL,0,0.162864,-113.7423,0.375009,-169.7945,1.800611,112.4496,200.0378,41.9776,463.6353,-8.2356,1406.2982,-84.6614
181977,LL,10,1.254798,-27.5966,1.41872,-142.7732,1.311853,106.1816,973.2812,134.4595,1104.3168,19.6036,1014.9818,-91.3595
181977,LL,20,1.317753,-23.149,1.398151,-140.2218,1.33106,103.7138,1022.3686,139.0297,1086.4264,22.127,1030.9807,-93.9269
181977,LL,30,1.337499,-21.5763,1.389802,-139.436,1.340938,102.9438,1037.7402,140.6418,1079.3064,22.9001,1039.1296,-94.725
181977,LL,40,1.347073,-20.7748,1.385413,-139.0574,1.346495,102.5741,1045.189,141.4627,1075.5818,23.2715,1043.7033,-95.1076
181977,3LG,0,0.181341,-45.1569,0.181355,-165.1414,0.181236,74.8425,212.7099,117.2919,212.7135,-2.6889,212.5824,-122.7092
181977,3LG,10,1.306627,-23.138,1.30618,-142.7694,1.298132,96.8341,1013.8428,139.1542,1013.2197,19.5363,1007.0043,-100.8797
181977,3LG,20,1.340918,-20.8083,1.339231,-140.4502,1.331978,99.1062,1040.4547,141.485,1038.8357,21.8552,1033.2766,-98.6084
181977,3LG,30,1.352207,-19.9957,1.350114,-139.6446,1.343207,99.8988,1049.2142,142.2981,1047.2717,22.6606,1041.9946,-97.8161
181977,3LG,40,1.357813,-19.5826,1.355523,-139.2356,1.348802,100.3018,1053.5636,142.7114,1051.4639,23.0694,1046.3379,-97.4132
181924,SLG,0,0.217741,-108.8452,2.208387,-144.4878,1.428318,135.3392,291.3876,50.6175,1740.8088,17.9744,1106.3501,-60.8837
181924,SLG,10,1.386806,-28.6505,1.441769,-132.8737,1.222536,101.0991,1080.3272,133.5233,1119.5675,29.6721,943.8867,-96.7272
181924,SLG,20,1.386192,-23.5245,1.399972,-135.2156,1.293878,101.0462,1077.7396,138.7087,1086.2328,27.2178,1001.5507,-96.7334
181924,SLG,30,1.383529,-21.7936,1.388857,-136.0986,1.317877,101.1535,1074.9564,140.4599,1077.4366,26.2932,1020.9163,-96.6062
181924,SLG,40,1.381727,-20.9256,1.3839,-136.5564,1.329848,101.229,1073.1987,141.3381,1073.532,25.814,1030.5709,-96.5201
181924,LL,0,0.144873,-178.3369,0.158188,-177.3013,1.882666,110.7179,195.8283,-18.5322,211.2808,-17.426,1473.9712,-86.4441
181924,LL,10,1.241401,-29.7349,1.442616,-143.7578,1.299566,107.2881,963.0863,132.2614,1123.6869,18.6428,1004.8235,-90.21
181924,LL,20,1.314012,-24.1918,1.409655,-140.5976,1.322326,104.1316,1019.5865,137.9618,1095.7042,21.7655,1023.8159,-93.4962
181924,LL,30,1.335667,-22.2602,1.397218,-139.6619,1.334753,103.1877,1036.4009,139.9423,1085.2774,22.6841,1034.0662,-94.4745
181924,LL,40,1.345944,-21.2828,1.390859,-139.218,1.341754,102.7438,1044.3752,140.9434,1079.9639,23.1186,1039.8248,-94.9337
181924,3LG,0,0.007869,-16.1622,0.007871,-136.1351,0.007867,103.8474,9.2307,146.2861,9.2321,26.3171,9.2279,-93.7044
181924,3LG,10,1.303786,-24.1613,1.303799,-143.7691,1.295048,95.8407,1011.6438,138.1302,1011.3797,18.5372,1004.6001,-101.8731
181924,3LG,20,1.340069,-21.3175,1.338515,-140.9452,1.330902,98.6092,1039.8004,140.9756,1038.2829,21.3605,1032.4359,-99.1056
181924,3LG,30,1.351776,-20.334,1.349747,-139.9733,1.342606,99.5676,1048.8825,141.9596,1046.9875,22.3321,1041.5241,-98.1473
181924,3LG,40,1.357541,-19.8358,1.355289,-139.4816,1.348396,100.0536,1053.3545,142.4581,1051.2829,22.8235,1046.0202,-97.6614
181993,SLG,0,0.185397,-114.0627,2.199818,-145.3032,1.457789,134.7776,254.3301,45.3541,1734.4034,17.1373,1130.0219,-61.4715
181993,SLG,10,1.389863,-29.6238,1.450393,-132.5261,1.210369,101.1844,1083.1044,132.5406,1126.4605,30.0391,934.0074,-96.6494
181993,SLG,20,1.388759,-24.0036,1.403099,-135.0051,1.287859,101.0347,1079.9322,138.2248,1088.7052,27.4396,996.6793,-96.7506
181993,SLG,30,1.385463,-22.1101,1.390641,-135.9523,1.313927,101.1354,1076.5899,140.1401,1078.8382,26.4472,1017.7224,-96.6284
181993,SLG,40,1.383259,-21.1617,1.385122,-136.4448,1.326915,101.2118,1074.4866,141.0995,1074.4879,25.9314,1028.2006,-96.5404
181993,LL,0,0.128106,177.4723,0.129344,176.7724,1.889781,110.0161,176.3976,-22.8111,177.9278,-23.3828,1480.0096,-87.1652
181993,LL,10,1.230736,-30.7238,1.452868,-144.4588,1.298239,107.8918,954.7831,131.2409,1132.1059,17.9482,1003.6032,-89.5787
181993,LL,20,1.310221,-24.7099,1.415181,-140.8888,1.319614,104.3853,1016.6517,137.43,1100.2046,21.4793,1021.5459,-93.2327
181993,LL,30,1.333516,-22.6071,1.400889,-139.8422,1.332597,103.3409,1034.7398,139.5867,1088.2603,22.5075,1032.2723,-94.3159
181993,LL,40,1.344474,-21.5432,1.393593,-139.3482,1.340024,102.8523,1043.2414,140.6767,1082.1833,22.9913,1038.3895,-94.8215
181993,3LG,0,0.00116,-83.9543,0.00116,156.065,0.00116,36.0224,1.3612,78.4948,1.361,-41.4832,1.3609,-161.5297
181993,3LG,10,1.301788,-24.7073,1.301987,-144.3054,1.292972,95.3069,1010.0953,137.584,1009.9764,18.0011,1002.9844,-102.4069
181993,3LG,20,1.339365,-21.5994,1.33786,-141.2207,1.330099,98.3323,1039.2559,140.6936,1037.7753,21.0851,1031.811,-99.3825
181993,3LG,30,1.35138,-20.5237,1.349371,-140.1586,1.342134,99.3809,1048.5768,141.7699,1046.6963,22.1469,1041.1564,-98.3341
181993,3LG,40,1.357272,-19.9787,1.355031,-139.6212,1.348067,99.9128,1053.1476,142.3152,1051.0829,22.6841,1045.7638,-97.8023
181994,SLG,0,0.157387,-116.8306,2.184132,-145.7189,1.4707,134.0589,221.4432,42.3325,1722.1021,16.7025,1140.4072,-62.216
181994,SLG,10,1.388712,-30.6738,1.459894,-132.2198,1.198478,101.3298,1082.5921,131.4785,1134.1029,30.363,924.3175,-96.5069
181994,SLG,20,1.38946,-24.5292,1.406633,-134.8034,1.281786,101.0423,1080.6702,137.6931,1091.5235,27.6523,991.7486,-96.7472
181994,SLG,30,1.386213,-22.4591,1.39267,-135.8095,1.309912,101.1276,1077.301,139.7871,1080.4491,26.5977,1014.4667,-96.6394
181994,SLG,40,1.383927,-21.4227,1.386515,-136.3349,1.323926,101.2014,1075.101,140.8355,1075.5904,26.0471,1025.7776,-96.5534
181994,LL,0,0.108689,174.2335,0.109885,173.5064,1.889269,109.5222,153.5945,-26.2406,155.0716,-26.8156,1479.8832,-87.6768
181994,LL,10,1.216225,-31.7318,1.459209,-145.2748,1.298714,108.5009,943.4278,130.2001,1137.508,17.1358,1003.8656,-88.9395
181994,LL,20,1.304524,-25.2577,1.419142,-141.2363,1.317374,104.6519,1012.2103,136.8681,1103.5065,21.1356,1019.6618,-92.9546
181994,LL,30,1.330126,-22.9774,1.403581,-140.0591,1.330661,103.5027,1032.0998,139.2075,1090.4949,22.2936,1030.6593,-94.1476
181994,LL,40,1.342089,-21.8222,1.395614,-139.5052,1.338428,102.967,1041.3851,140.3912,1083.8576,22.8366,1037.0636,-94.7024
181994,3LG,0,0.001062,-84.9276,0.001062,155.1131,0.001061,35.0591,1.2452,77.5211,1.2455,-42.4345,1.2448,-162.4931
181994,3LG,10,1.296775,-25.3147,1.297173,-144.9029,1.287908,94.7126,1006.2073,136.9763,1006.2456,17.4038,999.0517,-103.0012
181994,3LG,20,1.337156,-21.9182,1.335706,-141.5325,1.327795,98.0192,1037.5432,140.3747,1036.1051,20.7734,1030.021,-99.6957
181994,3LG,30,1.349985,-20.7393,1.348,-140.3693,1.340663,99.1687,1047.4962,141.5543,1045.6328,21.9363,1040.0138,-98.5464
181994,3LG,40,1.356258,-20.1415,1.354028,-139.7803,1.346991,99.7523,1052.3613,142.1524,1050.3051,22.525,1044.9278,-97.9628
181891,SLG,0,0.427668,-58.6223,2.063561,-141.8756,1.317358,129.7512,516.1344,100.8935,1621.3964,20.6266,1016.5146,-66.782
181891,SLG,10,1.39183,-28.8122,1.44289,-132.5579,1.215452,100.922,1084.4415,133.3642,1120.3868,29.9975,938.2855,-96.9168
181891,SLG,20,1.391839,-23.6473,1.398762,-134.9885,1.289944,100.8652,1082.2819,138.5892,1085.1967,27.4519,998.4566,-96.9243
181891,SLG,30,1.388039,-21.8809,1.387532,-135.9358,1.315278,101.0125,1078.5726,140.3753,1076.325,26.4608,1018.8777,-96.7544
181891,SLG,40,1.385393,-20.9925,1.382698,-136.4308,1.327924,101.1158,1076.1342,141.2734,1072.5285,25.9432,1029.0645,-96.6389
181891,LL,0,0.226373,-50.9415,0.458124,-157.0163,1.764032,110.5297,251.215,108.4541,554.5211,4.3512,1376.7619,-86.6959
181891,LL,10,1.239632,-29.9522,1.447219,-143.8886,1.297016,107.581,961.735,132.034,1127.4015,18.5156,1002.7532,-89.9088
181891,LL,20,1.315706,-24.4765,1.414259,-140.5805,1.317498,104.2421,1021.0088,137.6704,1099.3435,21.7896,1019.9184,-93.3851
181891,LL,30,1.337582,-22.4808,1.400568,-139.6264,1.330858,103.2395,1037.9791,139.7172,1087.9123,22.7254,1030.9264,-94.4237
181891,LL,40,1.347698,-21.4587,1.39344,-139.1819,1.338607,102.773,1045.8121,140.7642,1081.9887,23.1595,1037.2902,-94.9057
181891,3LG,0,0.325745,-29.7017,0.325826,-149.5687,0.325037,90.3067,382.1108,132.7467,382.1525,12.8868,381.2372,-107.2478
181891,3LG,10,1.304637,-24.2478,1.304546,-143.8498,1.295752,95.7506,1012.3068,138.0438,1011.9567,18.4566,1005.1455,-101.9633
181891,3LG,20,1.341077,-21.4109,1.339439,-141.0328,1.331755,98.5143,1040.5848,140.8823,1038.9976,21.273,1033.0969,-99.2006
181891,3LG,30,1.352612,-20.4073,1.350512,-140.0423,1.34332,99.493,1049.5333,141.8864,1047.579,22.2632,1042.0777,-98.2221
181891,3LG,40,1.358234,-19.8949,1.355922,-139.5373,1.348991,99.9934,1053.8944,142.3991,1051.7728,22.7679,1046.4819,-97.7218
255335,SLG,0,0.126469,-112.1409,2.161257,-145.6098,1.46293,133.2054,183.0758,45.3408,1703.6772,16.7937,1134.2703,-63.1006
255335,SLG,10,1.375362,-32.4879,1.478254,-131.7558,1.178011,101.7019,1072.8076,129.6381,1148.9426,30.8519,907.6282,-96.1292
255335,SLG,20,1.385398,-25.4721,1.413826,-134.4536,1.270627,101.0922,1077.8272,136.737,1097.304,28.0203,982.6863,-96.7014
255335,SLG,30,1.384128,-23.0919,1.396855,-135.5538,1.302417,101.1324,1075.8917,139.1454,1083.7999,26.8665,1008.3866,-96.6384
255335,SLG,40,1.382599,-21.8984,1.389404,-136.1356,1.318304,101.1948,1074.2281,140.3532,1077.8987,26.2565,1021.2199,-96.5632
255335,LL,0,0.059347,176.3305,0.108314,172.9793,1.881852,109.1627,94.7551,-26.9664,152.4503,-27.5894,1474.2059,-88.0617
255335,LL,10,1.180353,-33.3565,1.459295,-146.7445,1.303139,109.5778,915.2753,128.5162,1138.4154,15.6654,1007.3281,-87.8079
255335,LL,20,1.288821,-26.2101,1.421538,-141.8739,1.314235,105.1631,999.929,135.8899,1105.7888,20.5017,1017.0304,-92.4202
255335,LL,30,1.320363,-23.6333,1.405438,-140.4571,1.327533,103.8172,1024.4714,138.5354,1092.2104,21.899,1028.0656,-93.8196
255335,LL,40,1.335052,-22.3205,1.397062,-139.7933,1.335736,103.191,1035.8886,139.8811,1085.1836,22.5515,1034.8385,-94.4692
255335,3LG,0,0.028367,-41.0849,0.028413,-161.0032,0.02836,78.9536,33.2742,121.3621,33.326,1.4509,33.264,-118.5981
255335,3LG,10,1.279013,-26.3098,1.279839,-145.8806,1.270179,93.7435,992.4282,135.9807,992.8059,16.4265,985.2899,-103.9701
255335,3LG,20,1.328531,-22.4649,1.327226,-142.0657,1.31904,97.4846,1030.8545,139.8278,1029.5289,20.2405,1023.2237,-100.2303
255335,3LG,30,1.34433,-21.1143,1.342414,-140.7347,1.33489,98.8008,1043.1106,141.1791,1041.3002,21.571,1035.5317,-98.9143
255335,3LG,40,1.352056,-20.4267,1.349868,-140.0581,1.342691,99.4721,1049.1036,141.867,1047.0781,22.2473,1041.5897,-98.243
182030,SLG,0,0.168712,-98.1786,2.147227,-144.886,1.434085,132.8208,228.2958,58.8301,1691.9572,17.5377,1110.8705,-63.4955
182030,SLG,10,1.373809,-32.3785,1.47784,-131.8193,1.179572,101.7329,1071.5391,129.7471,1148.6177,30.7857,908.8828,-96.0954
182030,SLG,20,1.384913,-25.4462,1.413845,-134.4714,1.270978,101.1041,1077.4353,136.7628,1097.3231,28.0017,982.9669,-96.6887
182030,SLG,30,1.3839,-23.0807,1.396883,-135.5617,1.302563,101.1381,1075.7076,139.1566,1083.8248,26.8582,1008.5037,-96.6323
182030,SLG,40,1.382467,-21.8921,1.389426,-136.1401,1.318384,101.1981,1074.1219,140.3594,1077.9173,26.2519,1021.2834,-96.5597
182030,LL,0,0.037501,-126.2038,0.177216,176.3979,1.867717,109.5066,56.0759,9.635,232.5529,-23.2412,1462.4347,-87.7065
182030,LL,10,1.180894,-33.184,1.456904,-146.6932,1.304335,109.4972,915.6569,128.6936,1136.5012,15.7143,1008.306,-87.8918
182030,LL,20,1.28877,-26.1666,1.420941,-141.868,1.314709,105.1505,999.8778,135.9343,1105.3143,20.5068,1017.4165,-92.4331
182030,LL,30,1.320312,-23.6143,1.405182,-140.4554,1.327758,103.8131,1024.4262,138.5548,1092.008,21.9003,1028.2485,-93.8238
182030,LL,40,1.335015,-22.3099,1.396922,-139.7927,1.335865,103.1891,1035.8571,139.892,1085.0729,22.5519,1034.9433,-94.4711
182030,3LG,0,0.092349,-44.9988,0.092493,-164.8885,0.092278,75.0459,108.3264,117.4482,108.4862,-2.4335,108.233,-122.5064
182030,3LG,10,1.27894,-26.2442,1.279724,-145.8168,1.270124,93.8065,992.3714,136.0463,992.716,16.4902,985.2478,-103.9071
182030,3LG,20,1.32848,-22.4479,1.32717,-142.0493,1.319,97.5011,1030.8145,139.8448,1029.4855,20.2569,1023.193,-100.2138
182030,3LG,30,1.344301,-21.1067,1.342384,-140.7274,1.334868,98.8083,1043.0885,141.1867,1041.2775,21.5783,1035.5144,-98.9068
182030,3LG,40,1.352039,-20.4224,1.34985,-140.054,1.342677,99.4764,1049.0899,141.8713,1047.0644,22.2515,1041.5788,-98.2388
182153,SLG,0,0.028423,-122.443,2.147362,-144.8127,1.432046,132.8539,68.8286,31.1501,1692.0705,17.5468,1110.7876,-63.4777
182153,SLG,10,1.296743,-37.123,1.535211,-130.9417,1.130402,103.5545,1012.9328,124.9046,1195.2014,31.7011,868.657,-94.2011
182153,SLG,20,1.352983,-27.921,1.436186,-133.6183,1.240858,101.3928,1053.3285,134.2436,1115.4246,28.8938,958.507,-96.3943
182153,SLG,30,1.364229,-24.7626,1.410197,-134.9075,1.281874,101.2384,1060.9035,137.4451,1094.5927,27.5428,991.7192,-96.5326
182153,SLG,40,1.368362,-23.1637,1.398719,-135.6194,1.302718,101.2396,1063.5246,139.0656,1085.425,26.7968,1008.5806,-96.5201
182153,LL,0,0.019105,164.2023,0.020018,162.715,1.872827,108.8624,47.3736,-40.9281,48.5086,-41.4745,1467.6566,-88.4258
182153,LL,10,1.06316,-36.0783,1.406951,-150.7409,1.33481,111.864,849.3794,125.6826,1099.3549,11.6352,1033.0701,-85.419
182153,LL,20,1.226053,-28.5255,1.408133,-143.639,1.311021,106.6326,950.7046,133.5039,1096.5402,18.7327,1014.3598,-90.8796
182153,LL,30,1.279725,-25.2834,1.397801,-141.556,1.321524,104.7465,992.6336,136.8415,1087.0539,20.8007,1023.1363,-92.8472
182153,LL,40,1.305155,-23.5921,1.391663,-140.5856,1.329895,103.8579,1012.4756,138.578,1081.5654,21.7608,1030.0584,-93.772
182153,3LG,0,0.000602,-75.6344,0.000603,164.45,0.000602,44.4002,0.7056,86.812,0.7075,-33.0955,0.7057,-153.151
182153,3LG,10,1.201575,-28.5415,1.203948,-148.0943,1.193812,91.5904,932.3354,133.7474,933.9612,14.2133,926.0311,-106.122
182153,3LG,20,1.287756,-23.7791,1.287206,-143.3484,1.278327,96.2158,999.2211,138.5127,998.4964,18.9585,991.6247,-101.4989
182153,3LG,30,1.316823,-22.0361,1.315337,-141.6318,1.307296,97.9076,1021.7724,140.2567,1020.3039,20.6745,1014.1146,-99.8075
182153,3LG,40,1.331325,-21.1352,1.329425,-140.7472,1.32185,98.7839,1033.0221,141.1581,1031.2249,21.5587,1025.4139,-98.9313
182158,SLG,0,0.000375,-105.9755,2.135849,-144.9334,1.435383,132.3805,2675.233,-105.3669,1682.8305,17.4105,1113.6381,-63.9753
182158,SLG,10,1.272477,-38.9242,1.558353,-130.7301,1.11394,104.4444,308.9392,56.6005,1213.9469,31.9239,855.1349,-93.2753
182158,SLG,20,1.344125,-28.8673,1.445181,-133.3216,1.229595,101.5363,604.6536,119.0815,1122.6893,29.2052,949.3521,-96.249
182158,SLG,30,1.359159,-25.4068,1.415482,-134.6692,1.274055,101.2885,753.2374,129.1823,1098.8508,27.7928,985.3727,-96.4836
182158,SLG,40,1.364895,-23.6507,1.402359,-135.4266,1.296785,101.2604,830.4444,133.3885,1088.3519,26.9991,1003.7683,-96.5008
182158,LL,0,0.000387,-58.6003,0.000564,144.4604,1.867392,108.525,2811.2933,-58.5165,4034.3116,144.5477,1463.4318,-88.7833
182158,LL,10,1.036747,-36.1866,1.384402,-152.4252,1.354793,112.2615,284.0282,70.3433,329.6525,-56.4575,1049.2053,-85.0217
182158,LL,20,1.205247,-29.3834,1.406831,-144.3696,1.311155,107.2129,538.6972,118.2055,632.2198,3.9619,1014.4142,-90.2715
182158,LL,30,1.266546,-25.9093,1.397623,-142.0021,1.31971,105.1151,699.3206,128.5234,774.2824,12.8118,1021.6222,-92.4618
182158,LL,40,1.29561,-24.078,1.391692,-140.9031,1.327881,104.1207,786.2765,132.8654,846.5287,16.2969,1028.3915,-93.4977
182158,3LG,0,0.000537,-74.9259,0.000538,165.1659,0.000537,45.1109,3863.9964,-74.9231,3875.5146,165.1687,3864.4302,45.1137
182158,3LG,10,1.180016,-29.3853,1.182928,-148.9401,1.172713,90.7706,279.4695,65.262,279.7993,-54.3062,277.6389,-174.6352
182158,3LG,20,1.27627,-24.283,1.276023,-143.8423,1.266874,95.7288,570.0456,123.8176,569.5859,4.2777,565.5981,-116.1877
182158,3LG,30,1.309076,-22.3911,1.307759,-141.9781,1.299509,97.5632,722.8319,132.3051,721.7618,12.7342,717.299,-107.7541
182158,3LG,40,1.325492,-21.4087,1.323701,-141.0136,1.315964,98.5179,804.5053,135.7097,803.0773,16.1192,798.4762,-104.376
182162,SLG,0,0.081955,-40.7427,2.115448,-144.3464,1.411772,131.6771,2493.8582,-105.3862,1673.6257,17.2092,1118.3072,-64.4764
182162,SLG,10,1.270167,-39.6638,1.571888,-130.4194,1.100812,104.8637,306.0661,50.4893,1233.2432,32.0942,842.3619,-92.25
182162,SLG,20,1.347203,-29.2874,1.448751,-132.9989,1.220895,101.4528,593.7942,117.3478,1130.2926,29.5084,940.0922,-96.0829
182162,SLG,30,1.362247,-25.6998,1.417002,-134.4225,1.268164,101.1913,745.6764,128.1605,1103.2838,28.0425,978.9148,-96.4275
182162,SLG,40,1.36762,-23.8738,1.403119,-135.2315,1.292386,101.1724,824.801,132.6555,1091.38,27.2029,998.8668,-96.4787
182162,LL,0,0.082893,-34.2665,0.087521,-159.7601,1.846075,108.5766,2586.5046,-57.4928,3753.722,145.2472,1459.091,-89.148
182162,LL,10,1.03736,-35.7051,1.377401,-153.0568,1.364941,112.3941,297.2053,74.2952,332.2461,-62.2284,1065.4888,-84.6774
182162,LL,20,1.198997,-29.9072,1.413039,-144.6046,1.30776,107.6161,523.155,116.752,625.5985,2.3406,1015.1591,-89.6452
182162,LL,30,1.263479,-26.3158,1.402357,-142.1147,1.315692,105.3525,687.5357,127.5786,769.904,11.9522,1020.3242,-92.061
182162,LL,40,1.293807,-24.3997,1.395342,-140.969,1.324293,104.2795,777.0326,132.1596,843.3298,15.7187,1026.7992,-93.2131
182162,3LG,0,0.087278,-36.3632,0.087601,-156.0632,0.087037,83.7998,3580.3941,-74.0467,3591.8256,166.056,3580.3058,45.992
182162,3LG,10,1.176262,-29.6099,1.17952,-149.1646,1.169154,90.5614,279.3529,61.2396,279.9757,-58.3068,277.5698,-178.5939
182162,3LG,20,1.274381,-24.4801,1.274322,-144.0288,1.264883,95.5445,559.8684,122.5993,559.671,3.0716,555.5209,-117.3769
182162,3LG,30,1.307896,-22.5424,1.306662,-142.1204,1.298196,97.4196,714.6093,131.5999,713.7205,12.0394,709.1086,-108.4421
182162,3LG,40,1.324649,-21.5296,1.322898,-141.1273,1.314999,98.4021,797.8478,135.2066,796.5516,15.6244,791.8245,-104.8673
